Circuit: * E:\Engenharia da Computação\SEMESTRE 6\ce2\lab\Trabalho Final\filtrobessel.asc

.OP point found by inspection.
Ignoring empty pin current: Ix(u1:1)
Ignoring empty pin current: Ix(u1:2)
Ignoring empty pin current: Ix(u2:1)
Ignoring empty pin current: Ix(u2:2)
Ignoring empty pin current: Ix(u1:1)
Ignoring empty pin current: Ix(u1:2)
Ignoring empty pin current: Ix(u2:1)
Ignoring empty pin current: Ix(u2:2)

Date: Sun Dec 13 22:36:04 2020
Total elapsed time: 0.330 seconds.

tnom = 27
temp = 27
method = modified trap
totiter = 175848
traniter = 175848
tranpoints = 87925
accept = 56015
rejected = 31910
matrix size = 8
fillins = 0
solver = Normal
Matrix Compiler1: 300 bytes object code size  0.1/0.1/[0.1]
Matrix Compiler2: off  [0.0]/0.1/0.1

