Circuit: * E:\Engenharia da Computação\SEMESTRE 6\ce2\lab\Trabalho Final- Filtro\filtrobessel.asc

.OP point found by inspection.
Ignoring empty pin current: Ix(u1:1)
Ignoring empty pin current: Ix(u1:2)
Ignoring empty pin current: Ix(u2:1)
Ignoring empty pin current: Ix(u2:2)
Ignoring empty pin current: Ix(u1:1)
Ignoring empty pin current: Ix(u1:2)
Ignoring empty pin current: Ix(u2:1)
Ignoring empty pin current: Ix(u2:2)

Date: Wed Dec 16 11:44:03 2020
Total elapsed time: 1.913 seconds.

tnom = 27
temp = 27
method = modified trap
totiter = 1573390
traniter = 1573390
tranpoints = 786696
accept = 533373
rejected = 253323
matrix size = 8
fillins = 0
solver = Normal
Matrix Compiler1:      18 opcodes  0.1/[0.0]/0.1
Matrix Compiler2: off  [0.0]/0.1/0.1

